Test/data2.m
bus = [1.000000000000000   1.000000000000000                   0   -1.600000000000000   -0.800000000000000   1.000000000000000
   2.000000000000000   1.000000000000000                   0   -2.000000000000000   -1.000000000000000   1.000000000000000
   3.000000000000000   1.000000000000000                   0   -3.700000000000000   -1.300000000000000   1.000000000000000
   4.000000000000000   1.050000000000000                   0   5.000000000000000                   0   2.000000000000000
   5.000000000000000   1.050000000000000                   0                   0                   0   3.000000000000000]
line = [1.000000000000000   2.000000000000000   0.040000000000000   0.250000000000000                   0   0.250000000000000                   0
   1.000000000000000   3.000000000000000   0.100000000000000   0.350000000000000                   0                   0                   0
   2.000000000000000   3.000000000000000   0.080000000000000   0.300000000000000                   0   0.250000000000000                   0
   4.000000000000000   2.000000000000000                   0   0.015000000000000                   0                   0   1.050000000000000
   5.000000000000000   3.000000000000000                   0   0.030000000000000                   0                   0   1.050000000000000]
    